/*---------------------------------------------------------------------------*\
| =========                 |                                                 |
| \\      /  F ield         | OpenFOAM: The Open Source CFD Toolbox           |
|  \\    /   O peration     | Version:  1.6                                   |
|   \\  /    A nd           | Web:      http://www.openfoam.org               |
|    \\/     M anipulation  |                                                 |
\*---------------------------------------------------------------------------*/

FoamFile
{
    version         2.0;
    format          ascii;

    root            "";
    case            "";
    instance        "";
    local           "";

    class           dictionary;
    object          ABLProperties;
}

// * * * * * * * * * * * * * * * * * * * * * * * * * * * * * * * * * * * * * //

#include        "../setUp"



// Properties of the mesoscale source terms
momentumSourceType       "computed";
temperatureSourceType    "given";

velocityInputType        "speedAndDirection";


//#include "forcingTable"

// Use the source table in the file listed below.
sourceHeightsMomentum
(
    $windHeight
);

sourceTableMomentumX
(
    (    0.0 $U0Mag)
    (90000.0 $U0Mag)
);

sourceTableMomentumY
(
	(  0.0 $dir)
	(20000 $dir)
	(21200 $dir)
	(21210 239.0)
	(21215 238.7)
	(21220 238.5)
	(21225 238.7)
	(21230 239.1)
	(21235 239.7)
	(21240 240.3)
	(21245 240.7)
	(21250 240.9)
	(21255 240.8)
	(21260 240.4)
	(21265 239.9)
	(21270 239.4)
	(21275 239.0)
	(21280 238.9)
	(21285 239.0)
	(21290 239.3)
	(21295 239.7)
	(21300 239.9)
	(21305 240.0)
	(21310 239.8)
	(21315 239.3)
	(21320 238.7)
	(21325 238.2)
	(21330 237.8)
	(21335 237.6)
	(21340 237.7)
	(21345 238.1)
	(21350 238.7)
	(21355 239.3)
	(21360 240.0)
	(21365 240.4)
	(21370 240.7)
	(21375 240.8)
	(21380 240.7)
	(21385 240.4)
	(21390 240.1)
	(21395 239.6)
	(21400 239.1)
	(21405 238.6)
	(21410 238.2)
	(21415 237.9)
	(21420 238.0)
	(21425 238.4)
	(21430 239.1)
	(21435 240.1)
	(21440 241.1)
	(21445 242.0)
	(21450 242.6)
	(21455 242.7)
	(21460 242.2)
	(21465 241.2)
	(21470 240.0)
	(21475 238.7)
	(21480 237.6)
	(21485 236.9)
	(21490 236.7)
	(21495 237.0)
	(21500 237.7)
	(21505 238.4)
	(21510 238.9)
	(21515 239.1)
	(21520 239.0)
	(21525 238.7)
	(21530 238.3)
	(21535 238.1)
	(21540 238.3)
	(21545 238.8)
	(21550 239.8)
	(21555 240.8)
	(21560 241.7)
	(21565 242.1)
	(21570 241.9)
	(21575 240.9)
	(21580 239.3)
	(21585 237.4)
	(21590 235.4)
	(21595 233.7)
	(21600 232.6)
	(21605 232.3)
	(21610 232.5)
	(21615 233.3)
	(21620 234.3)
	(21625 235.2)
	(21630 236.1)
	(21635 236.7)
	(21640 237.1)
	(21645 237.4)
	(21650 237.7)
	(21655 238.2)
	(21660 238.8)
	(21665 239.4)
	(21670 240.0)
	(21675 240.4)
	(21680 240.5)
	(21685 240.4)
	(21690 240.2)
	(21695 240.0)
	(21700 239.9)
	(21705 240.2)
	(21710 240.8)
	(21715 241.6)
	(21720 242.5)
	(21725 243.3)
	(21730 243.6)
	(21735 243.5)
	(21740 242.8)
	(21745 241.7)
	(21750 240.4)
	(21755 239.1)
	(21760 238.0)
	(21765 237.4)
	(21770 237.1)
	(21775 237.3)
	(21780 237.6)
	(21785 237.9)
	(21790 238.0)
	(21795 237.8)
	(21800 237.3)
	(21805 236.6)
	(21810 235.8)
	(21815 235.2)
	(21820 234.7)
	(21825 234.5)
	(21830 234.7)
	(21835 235.1)
	(21840 235.7)
	(21845 236.3)
	(21850 236.8)
	(21855 237.2)
	(21860 237.4)
	(21865 237.3)
	(21870 237.2)
	(21875 236.9)
	(21880 236.7)
	(21885 236.6)
	(21890 236.6)
	(21895 236.8)
	(21900 237.1)
	(21905 237.5)
	(21910 237.9)
	(21915 238.1)
	(21920 237.9)
	(21925 237.3)
	(21930 236.2)
	(21935 234.9)
	(21940 233.3)
	(21945 232.0)
	(21950 231.0)
	(21955 230.8)
	(21960 231.3)
	(21965 232.7)
	(21970 234.6)
	(21975 236.7)
	(21980 238.7)
	(21985 240.1)
	(21990 240.7)
	(21995 240.5)
	(22000 239.6)
	(22005 238.3)
	(22010 237.0)
	(22015 236.1)
	(22020 235.7)
	(22025 236.1)
	(22030 237.0)
	(22035 238.2)
	(22040 239.3)
	(22045 240.1)
	(22050 240.4)
	(22055 240.1)
	(22060 239.5)
	(22065 238.7)
	(22070 238.2)
	(22075 238.1)
	(22080 238.6)
	(22085 239.6)
	(22090 240.8)
	(22095 242.1)
	(22100 243.0)
	(22105 243.5)
	(22110 243.5)
	(22115 243.1)
	(22120 242.6)
	(22125 242.1)
	(22130 241.9)
	(22135 242.1)
	(22140 242.7)
	(22145 243.5)
	(22150 244.2)
	(22155 244.7)
	(22160 244.8)
	(22165 244.6)
	(22170 244.1)
	(22175 243.5)
	(22180 243.1)
	(22185 242.9)
	(22190 243.0)
	(22195 243.4)
	(22200 243.9)
	(22205 244.4)
	(22210 244.6)
	(22215 244.6)
	(22220 244.3)
	(22225 243.8)
	(22230 243.4)
	(22235 243.2)
	(22240 243.2)
	(22245 243.5)
	(22250 243.9)
	(22255 244.2)
	(22260 244.3)
	(22265 244.1)
	(22270 243.4)
	(22275 242.5)
	(22280 241.4)
	(22285 240.5)
	(22290 239.8)
	(22295 239.4)
	(22300 239.4)
	(22305 239.7)
	(22310 240.0)
	(22315 240.2)
	(22320 240.1)
	(22325 239.9)
	(22330 239.5)
	(22335 239.2)
	(22340 239.2)
	(22345 239.7)
	(22350 240.6)
	(22355 241.9)
	(22360 243.4)
	(22365 244.8)
	(22370 245.9)
	(22375 246.5)
	(22380 246.5)
	(22385 246.0)
	(22390 245.2)
	(22395 244.2)
	(22400 243.3)
	(22405 242.6)
	(22410 242.2)
	(22415 241.8)
	(22420 241.5)
	(22425 241.1)
	(22430 240.4)
	(22435 239.6)
	(22440 238.7)
	(22445 238.1)
	(22450 237.8)
	(22455 238.1)
	(22460 239.1)
	(22465 240.7)
	(22470 242.6)
	(22475 244.6)
	(22480 246.3)
	(22485 247.3)
	(22490 247.5)
	(22495 246.7)
	(22500 245.2)
	(22505 243.1)
	(22510 240.9)
	(22515 238.8)
	(22520 237.3)
	(22525 236.5)
	(22530 236.5)
	(22535 237.2)
	(22540 238.5)
	(22545 240.0)
	(22550 241.5)
	(22555 242.8)
	(22560 243.6)
	(22565 243.9)
	(22570 243.6)
	(22575 242.8)
	(22580 241.8)
	(22585 240.7)
	(22590 239.7)
	(22595 239.1)
	(22600 238.9)
	(22605 239.2)
	(22610 240.0)
	(22615 241.1)
	(22620 242.4)
	(22625 243.5)
	(22630 244.4)
	(22635 244.9)
	(22640 244.8)
	(22645 244.3)
	(22650 243.3)
	(22655 242.2)
	(22660 241.0)
	(22665 240.0)
	(22670 239.3)
	(22675 238.9)
	(22680 238.9)
	(22685 239.1)
	(22690 239.6)
	(22695 240.2)
	(22700 240.7)
	(22705 241.1)
	(22710 241.2)
	(22715 241.2)
	(22720 241.0)
	(22725 240.6)
	(22730 240.2)
	(22735 239.7)
	(22740 239.4)
	(22745 239.0)
	(22750 238.8)
	(22755 238.7)
	(22760 238.7)
	(22765 238.7)
	(22770 238.6)
	(22775 238.6)
	(22780 238.5)
	(22785 238.3)
	(22790 238.2)
	(22795 238.0)
	(22800 237.9)
	(22805 237.8)
	(22810 237.7)
	(22815 237.7)
	(22820 237.7)
	(22825 237.7)
	(22830 237.8)
	(22835 237.9)
	(22840 238.2)
	(22845 238.5)
	(22850 239.0)
	(22855 239.7)
	(22860 240.4)
	(22865 241.1)
	(22870 241.8)
	(22875 242.4)
	(22880 242.7)
	(22885 242.9)
	(22890 242.9)
	(22895 242.9)
	(22900 243.0)
	(22905 243.3)
	(22910 243.8)
	(22915 244.5)
	(22920 245.3)
	(22925 246.0)
	(22930 246.5)
	(22935 246.6)
	(22940 246.2)
	(22945 245.3)
	(22950 244.2)
	(22955 242.9)
	(22960 241.6)
	(22965 240.6)
	(22970 240.0)
	(22975 239.7)
	(22980 239.7)
	(22985 239.9)
	(22990 240.0)
	(22995 240.0)
	(23000 239.8)
    (90000.0 $dir)
);

sourceTableMomentumZ
(
    (    0.0 0.0)
    (90000.0 0.0)
);

sourceHeightsTemperature
(
    $windHeight
);

sourceTableTemperature
(
    (    0.0 0.0)
    (90000.0 0.0)
);


// Relaxation factors applied when computing sources given desired
// velocity and temperature.
alphaMomentum      0.7;
alphaTemperature   0.7;


// Properties of the Coriolis force
planetaryRotationPeriod   $EarthPeriod;
latitude                  $latitude;

// Statistics gathering input
statisticsOn              $statisticsOn;
statisticsFrequency       $statisticsFrequency;

// ************************************************************************* //
